February 08 2021
NYT Across Clues
JADA
MTWTF
LPS
EVIL
COWARD
ERA
NOSE
CMINOR
TIN
NICEJOB
STRAYED
ADO
LYRA
HUGOS
MAO
ASP
TOUTS
ORBS
HITECH
RET
POOH
ADORE
OHSO
PCB
THERMO
WASP
SAUNA
RIA
ALI
FLINT
AFTS
RFK
LEAPDAY
RAKEDIN
ALT
EMOPOP
TOTO
OLE
MEDUSA
TWIT
SAD
RANTS
ANNS
NYT Vertical Clues
JENNA
AVOID
DISCOMBOBULATED
ALEE
MCCOY
TOMBRAIDER
WWI
TANS
FROTH
LETYOURHAIRDOWN
PRIESTESS
SAND
DRRUTH
JLO
AGO
ASTORIA
ASH
PERMAFROST
STOP
OPPS
ROCAFELLA
HAH
CEO
OWL
TANDEM
NIP
ASK
TAMER
TAPAS
FITIN
KNOTS
LAOS
YODA
ETTA
PUN

Actress/TV host ___ Pinkett Smith
The five weekdays, for short
33 1/3 r.p.m. records
Satan’s doings
One who’s habitually afraid
Constitutional proposal supported by the National Woman’s Party, for short
“Scenter” of the face
Musical key with three flats
___ Man (“The Wizard of Oz” character)
“You did it!”
Wandered off
“Without further ___ …”
Harp-shaped constellation
Annual science fiction awards
China’s Chairman ___
Snake in “Antony and Cleopatra”
Ballyhoos
Celestial bodies
Like the newest gadgetry, informally
No longer employed: Abbr.
Winnie-the-___
J’___ (Dior perfume)
Very
Banned pollutant, in brief
Lead-in to -stat
“Ant-Man and the ___” (2018 film)
Relative of a steam bath
Narrow inlet
Actor Mahershala
City NNW of Detroit
Times before eves, in ads
Deliverer of a noted speech upon the death of Martin Luther King Jr. (4/4/1968), in brief
February 29
Acquired lots of, as money
___-country (music genre)
Music genre for Billie Eilish
Dog in Oz
Cry to a toreador
Monster slain by Perseus
Nincompoop
Unhappy
Tirades
St. ___ Bay, Jamaica
Liz’s best friend on “30 Rock”
Shun
Completely confused
Away from the wind, at sea
“Star Trek” doctor
Lara Croft, in film
Conflict in 2017’s “Wonder Woman,” in brief
Light browns
Foam
“Loosen up!” … or a hint to this puzzle’s circled letters
“High” figure in a tarot deck
Beach composition
Noted sex therapist
Musical artist “from the block,” familiarly
In the past
Queens neighborhood
What’s left in a fireplace
Layer of soil that never thaws
Octagonal street sign
Antonyms: Abbr.
Record label co-founded by Jay-Z
“That’ll be the day!”
Corp. V.I.P.
Messenger bird in the Harry Potter books
Bicycle built for two
Tiny bite
Question
Horse whisperer, e.g.
Patatas bravas, calamares and others
Naturally belong
They may be hard to untie
Vientiane’s land
Who says “When you look at the dark side, careful you must be”
“At Last” singer James
Wordplay joke
